C8H10N4O2
APtclcactv03182523303D 0   0.00000     0.00000
 
 24 25  0  0  0  0  0  0  0  0999 V2000
   -2.5608    1.2510   -0.0000 C   0  0  0  0  0  0  0  0  0  0  0  0
   -3.2615   -1.1613   -0.0001 C   0  0  0  0  0  0  0  0  0  0  0  0
    1.5337    2.6294    0.0001 C   0  0  0  0  0  0  0  0  0  0  0  0
    2.2466   -2.1760   -0.0003 C   0  0  0  0  0  0  0  0  0  0  0  0
   -0.4379   -2.4280    0.0005 O   0  0  0  0  0  0  0  0  0  0  0  0
    2.9938    0.3840    0.0004 O   0  0  0  0  0  0  0  0  0  0  0  0
   -0.0162   -1.2853   -0.0001 C   0  0  0  0  0  0  0  0  0  0  0  0
    1.7906    0.2082    0.0002 C   0  0  0  0  0  0  0  0  0  0  0  0
   -0.9114   -0.1940   -0.0001 C   0  0  0  0  0  0  0  0  0  0  0  0
   -0.4027    1.0988   -0.0003 C   0  0  0  0  0  0  0  0  0  0  0  0
   -1.4446    1.9342   -0.0003 N   0  0  0  0  0  0  0  0  0  0  0  0
    0.9713    1.2767   -0.0002 N   0  0  0  0  0  0  0  0  0  0  0  0
    1.3120   -1.0479   -0.0003 N   0  0  0  0  0  0  0  0  0  0  0  0
   -2.2862   -0.0681    0.0001 N   0  0  0  0  0  0  0  0  0  0  0  0
   -3.5520    1.6797    0.0041 H   0  0  0  0  0  0  0  0  0  0  0  0
   -3.5032   -1.4326    1.0275 H   0  0  0  0  0  0  0  0  0  0  0  0
   -4.1675   -0.8398   -0.5137 H   0  0  0  0  0  0  0  0  0  0  0  0
   -2.8393   -2.0247   -0.5142 H   0  0  0  0  0  0  0  0  0  0  0  0
    1.6730    2.9648    1.0278 H   0  0  0  0  0  0  0  0  0  0  0  0
    2.4950    2.6234   -0.5136 H   0  0  0  0  0  0  0  0  0  0  0  0
    0.8514    3.3066   -0.5137 H   0  0  0  0  0  0  0  0  0  0  0  0
    2.4783   -2.4560   -1.0280 H   0  0  0  0  0  0  0  0  0  0  0  0
    3.1638   -1.8880    0.5133 H   0  0  0  0  0  0  0  0  0  0  0  0
    1.7931   -3.0235    0.5137 H   0  0  0  0  0  0  0  0  0  0  0  0
  9 10  2  0  0  0  0
  7  9  1  0  0  0  0
  9 14  1  0  0  0  0
 10 12  1  0  0  0  0
 10 11  1  0  0  0  0
  7 13  1  0  0  0  0
  5  7  2  0  0  0  0
  1 14  1  0  0  0  0
  2 14  1  0  0  0  0
  8 12  1  0  0  0  0
  3 12  1  0  0  0  0
  4 13  1  0  0  0  0
  6  8  2  0  0  0  0
  1 11  2  0  0  0  0
  8 13  1  0  0  0  0
  1 15  1  0  0  0  0
  2 16  1  0  0  0  0
  2 17  1  0  0  0  0
  2 18  1  0  0  0  0
  3 19  1  0  0  0  0
  3 20  1  0  0  0  0
  3 21  1  0  0  0  0
  4 22  1  0  0  0  0
  4 23  1  0  0  0  0
  4 24  1  0  0  0  0
M  END
